57
./0.log	Energy: -961566.4693645
O          0.73389       -0.36853       -1.54955
P          0.43705       -1.55820       -0.69866
H          0.94948       -2.73789       -1.31238
N          0.99198       -1.60286        0.91261
C          2.43115       -1.74992        1.16974
C          3.25806       -0.81632        0.29398
C          3.07566        0.60859        0.28857
C          2.04939        1.27393        1.01745
C          1.92306        2.64632        0.98591
C          2.80858        3.43472        0.21304
C          3.80051        2.82444       -0.52208
C          3.96007        1.41135       -0.50874
C          4.97730        0.78585       -1.28077
C          5.12141       -0.58119       -1.27263
C          4.25776       -1.37410       -0.48058
C          2.76716       -1.56668        2.65704
C          0.05390       -2.35808        1.73672
C         -1.33215       -2.02923        1.18105
N         -1.15664       -1.85990       -0.25494
C         -2.35513       -1.75046       -1.09042
C         -3.38349       -0.77551       -0.51465
C         -4.64187       -1.27704       -0.23376
C         -5.67668       -0.46887        0.29323
C         -5.43734        0.85896        0.55695
C         -4.16068        1.42853        0.29678
C         -3.11043        0.61257       -0.25555
C         -1.85135        1.23083       -0.50787
C         -1.64314        2.56567       -0.22440
C         -2.67637        3.36183        0.32271
C         -3.90898        2.80039        0.57459
C         -2.03365       -1.47569       -2.56407
H          2.74094       -2.78296        0.90481
H          1.32720        0.68130        1.57309
H          1.12099        3.12630        1.55136
H          2.69679        4.52148        0.19333
H          4.48251        3.41942       -1.13507
H          5.63739        1.41299       -1.88542
H          5.89723       -1.06177       -1.87296
H          4.38551       -2.46005       -0.48071
H          2.44224       -0.58558        3.02973
H          3.85640       -1.63721        2.78731
H          2.30519       -2.34946        3.27681
H          0.12876       -2.05857        2.79189
H          0.25059       -3.45052        1.68429
H         -2.04767       -2.84144        1.39409
H         -1.72945       -1.10675        1.64181
H         -2.84996       -2.73972       -1.05856
H         -4.84181       -2.33569       -0.42233
H         -6.65666       -0.90788        0.49448
H         -6.22218        1.49677        0.97177
H         -1.02131        0.66900       -0.92963
H         -0.66320        3.00157       -0.42994
H         -2.49696        4.41761        0.54067
H         -4.71915        3.40307        0.99368
H         -2.96927       -1.50426       -3.14037
H         -1.36242       -2.25137       -2.96591
H         -1.55192       -0.50316       -2.71648
