65
./1.log	Energy: -1058670.8020391
O          0.69816       -3.35623        0.41344
P          0.09327       -2.23780       -0.37627
H         -0.52549       -2.75707       -1.54235
N         -1.00544       -1.22435        0.40007
C         -2.33966       -1.61682        0.87000
C         -3.42994       -1.06309       -0.03783
C         -4.39131       -0.18069        0.46742
C         -5.38464        0.34824       -0.36264
C         -5.42131        0.00466       -1.71558
C         -4.45989       -0.87049       -2.23283
C         -3.47314       -1.39852       -1.39922
C         -2.45465       -3.13046        1.06611
C         -0.76605        0.19581        0.14739
C         -1.08701        1.06968        1.33925
C         -1.79784        2.26183        1.17059
C         -2.05862        3.09272        2.26432
C         -1.61477        2.73140        3.53855
C         -0.90663        1.53713        3.71466
C         -0.64271        0.71272        2.62028
C          0.72856        0.30269       -0.24533
C          0.99354        1.52047       -1.10040
C          1.60946        2.64762       -0.54691
C          1.81411        3.79507       -1.31878
C          1.40995        3.82033       -2.65570
C          0.79899        2.69366       -3.21753
C          0.59104        1.55190       -2.44273
N          1.05201       -0.95514       -0.92223
C          2.44662       -1.11620       -1.36725
C          3.44078       -0.87875       -0.23704
C          4.39519        0.13902       -0.35258
C          5.31048        0.38248        0.67619
C          5.27275       -0.39015        1.83878
C          4.31601       -1.40347        1.96499
C          3.40404       -1.64909        0.93652
C          2.65969       -2.45965       -2.06937
H         -2.47607       -1.14646        1.85747
H         -4.35069        0.10674        1.52123
H         -6.12660        1.03699        0.04873
H         -6.19323        0.41978       -2.36799
H         -4.47976       -1.14137       -3.29136
H         -2.72129       -2.07402       -1.81398
H         -2.40071       -3.67276        0.10957
H         -3.42680       -3.36313        1.52370
H         -1.64626       -3.50404        1.70947
H         -1.37625        0.53861       -0.70695
H         -2.15161        2.53676        0.17412
H         -2.61347        4.02292        2.12019
H         -1.82171        3.37724        4.39531
H         -0.55962        1.24822        4.70974
H         -0.09592       -0.22493        2.74962
H          1.32384        0.39733        0.67951
H          1.93276        2.62099        0.49635
H          2.29499        4.66998       -0.87475
H          1.57379        4.71459       -3.26185
H          0.48543        2.70634       -4.26432
H          0.12314        0.66408       -2.87527
H          2.61762       -0.32372       -2.11379
H          4.41317        0.75656       -1.25491
H          6.04845        1.18170        0.57075
H          5.98313       -0.20092        2.64744
H          4.27839       -2.00836        2.87460
H          2.64575       -2.42934        1.04567
H          2.51312       -3.30215       -1.37888
H          3.68476       -2.50855       -2.46341
H          1.95846       -2.56903       -2.91220
