86
./11.log	Energy: -1231262.5788061
O         -0.48004       -2.76719        0.30395
P         -0.67643       -1.57898       -0.57086
H         -0.64720       -1.93769       -1.94568
N          0.38005       -0.24856       -0.41486
C          1.75389       -0.41329       -0.11797
C          2.47891        0.58618        0.53346
C          3.85532        0.44361        0.77470
C          4.60716        1.61097        1.43303
C          6.09923        1.30362        1.62810
C          3.98853        1.90822        2.81498
C          4.47856        2.85923        0.53251
C          4.47933       -0.74324        0.38790
C          3.76653       -1.78289       -0.24127
C          4.49312       -3.08509       -0.61257
C          3.55725       -4.09842       -1.28999
C          5.05361       -3.73001        0.67274
C          5.65261       -2.76885       -1.57978
C          2.41126       -1.59675       -0.50434
C         -0.31740        1.00297       -0.11605
C          0.28185        2.22253       -0.78465
C          0.89961        2.12954       -2.03721
C          1.41999        3.26864       -2.65370
C          1.32270        4.51446       -2.02593
C          0.70023        4.61423       -0.77884
C          0.18351        3.47214       -0.16153
C         -1.77961        0.79160       -0.59540
C         -2.74982        1.70535        0.11387
C         -3.11808        1.45457        1.44233
C         -3.97735        2.32507        2.11317
C         -4.47533        3.45955        1.46279
C         -4.11015        3.71567        0.13931
C         -3.25258        2.83919       -0.53183
N         -2.06081       -0.62767       -0.36108
C         -3.35432       -1.15508       -0.68457
C         -4.04101       -1.98001        0.23112
C         -3.48396       -2.33072        1.60169
C         -4.43130       -1.86966        2.72056
C         -3.16634       -3.82894        1.71516
C         -5.29886       -2.47195       -0.15726
C         -5.87283       -2.15283       -1.38629
C         -5.18762       -1.32128       -2.27624
C         -3.93211       -0.83361       -1.92362
H          1.98356        1.50287        0.83804
H          6.60378        1.10942        0.66929
H          6.59904        2.16421        2.09916
H          6.25370        0.43020        2.28014
H          4.05581        1.02717        3.47215
H          4.51850        2.74278        3.30231
H          2.92743        2.18775        2.73555
H          3.42909        3.15417        0.38464
H          5.01035        3.71402        0.98179
H          4.91235        2.66881       -0.46155
H          5.54278       -0.87685        0.57474
H          4.11226       -5.02074       -1.52121
H          2.71021       -4.36952       -0.64169
H          3.15285       -3.70912       -2.23732
H          5.58043       -4.66841        0.43426
H          5.76518       -3.06540        1.18493
H          4.24083       -3.96132        1.37845
H          5.27539       -2.30138       -2.50291
H          6.38420       -2.08118       -1.13007
H          6.18626       -3.69287       -1.85600
H          1.84201       -2.38627       -0.98805
H         -0.33654        1.17126        0.97589
H          0.99114        1.15168       -2.51416
H          1.91230        3.18268       -3.62534
H          1.73597        5.40467       -2.50585
H          0.62016        5.58359       -0.28129
H         -0.29864        3.54885        0.81608
H         -1.80142        1.02988       -1.67459
H         -2.73332        0.56486        1.94313
H         -4.26285        2.11612        3.14695
H         -5.15004        4.14028        1.98734
H         -4.49658        4.59839       -0.37558
H         -2.96577        3.03908       -1.56713
H         -2.53290       -1.79392        1.71469
H         -5.38046       -2.42958        2.70532
H         -3.96768       -2.03527        3.70634
H         -4.67518       -0.80021        2.62819
H         -4.07142       -4.44340        1.57653
H         -2.75411       -4.05570        2.71154
H         -2.41411       -4.11737        0.96933
H         -5.84656       -3.11758        0.53290
H         -6.85613       -2.55002       -1.64910
H         -5.62496       -1.05940       -3.24236
H         -3.38489       -0.19225       -2.61696
