89
./12.log	Energy: -1255914.7732162
O         -0.50905       -2.50993       -1.09265
P         -0.61576       -1.02268       -1.01590
H         -0.48274       -0.42827       -2.29288
N          0.46173       -0.19827        0.01205
C          1.86824       -0.27677       -0.08217
C          2.67794        0.69944        0.51386
C          4.07322        0.64264        0.40566
C          4.90846        1.75935        1.05319
C          4.62094        1.80135        2.56867
C          4.51928        3.11216        0.41878
C          6.41686        1.54740        0.85444
C          4.64868       -0.41676       -0.30864
C          3.86114       -1.41501       -0.90363
C          4.46768       -2.60141       -1.67061
C          4.07392       -3.91469       -0.96149
C          6.00048       -2.52755       -1.74031
C          3.91543       -2.61209       -3.11165
C          2.47020       -1.33781       -0.77776
C         -0.19987        0.70759        0.94375
C         -0.17585        2.16805        0.51728
C          0.08790        2.54993       -0.80136
C          0.03405        3.89506       -1.17491
C         -0.28151        4.87484       -0.23050
C         -0.53284        4.50230        1.09394
C         -0.47642        3.15742        1.46332
C         -1.65289        0.17787        1.06458
C         -1.85543       -0.86617        2.14763
C         -2.97435       -0.76101        2.98251
C         -3.22667       -1.71787        3.96928
C         -2.35392       -2.79522        4.13233
C         -1.23252       -2.90892        3.30362
C         -0.98364       -1.95394        2.31721
N         -1.97294       -0.29069       -0.30834
C         -3.29567       -0.79492       -0.57575
C         -4.30000       -0.00363       -1.19617
C         -4.06765        1.42388       -1.74378
C         -3.66924        2.40042       -0.61913
C         -5.33538        1.99365       -2.40838
C         -2.96240        1.39911       -2.82012
C         -5.56394       -0.60591       -1.33876
C         -5.83387       -1.91170       -0.92614
C         -4.82490       -2.68322       -0.35622
C         -3.56461       -2.11712       -0.18455
H          2.21763        1.53116        1.04156
H          3.55977        2.00366        2.77691
H          4.87998        0.84201        3.04331
H          5.21403        2.59518        3.05123
H          5.10476        3.93101        0.86799
H          4.71486        3.10472       -0.66495
H          3.45296        3.34121        0.56371
H          6.69099        1.53886       -0.21149
H          6.97445        2.36634        1.33474
H          6.75855        0.60239        1.30378
H          5.72884       -0.46864       -0.40141
H          4.45259       -3.92849        0.07266
H          2.98227       -4.04389       -0.92243
H          4.49803       -4.78145       -1.49429
H          6.45701       -2.55039       -0.73892
H          6.38904       -3.39101       -2.30211
H          6.34272       -1.61512       -2.25258
H          4.34078       -3.45520       -3.67996
H          2.82059       -2.71639       -3.12656
H          4.17401       -1.67905       -3.63685
H          1.83634       -2.11940       -1.19535
H          0.28261        0.61940        1.92982
H          0.34754        1.79008       -1.53875
H          0.24112        4.17752       -2.20974
H         -0.32412        5.92668       -0.52246
H         -0.77109        5.26263        1.84154
H         -0.67527        2.86909        2.49981
H         -2.31692        1.02030        1.29098
H         -3.66436        0.07639        2.84809
H         -4.10825       -1.62237        4.60766
H         -2.54711       -3.54776        4.90062
H         -0.54805       -3.75230        3.42135
H         -0.12371       -2.07603        1.65826
H         -3.64488        3.43132       -1.00582
H         -4.39304        2.36604        0.21041
H         -2.67124        2.18628       -0.22974
H         -6.16793        2.09479       -1.69550
H         -5.11346        2.99783       -2.79992
H         -5.67551        1.37692       -3.25384
H         -2.83525        2.40358       -3.25475
H         -2.00076        1.09779       -2.39378
H         -3.22081        0.70311       -3.63342
H         -6.37457       -0.04466       -1.79777
H         -6.83635       -2.32364       -1.06607
H         -5.01014       -3.71340       -0.04468
H         -2.75372       -2.70087        0.24726
