110
./13.log	Energy: -1475562.6479031
O         -0.28215       -1.69975       -0.82285
P          0.32573       -0.33609       -0.92004
H          0.62049       -0.01257       -2.26655
N          1.72046       -0.01426        0.00066
C          2.90923       -0.77565       -0.06071
C          2.87566       -2.09873       -0.52870
C          4.04818       -2.85535       -0.62290
C          3.95351       -4.30046       -1.13906
C          3.33658       -4.29642       -2.55369
C          3.05137       -5.11691       -0.18933
C          5.32716       -4.98423       -1.21169
C          5.26130       -2.27220       -0.22401
C          5.31879       -0.95964        0.26337
C          6.63445       -0.28962        0.69257
C          6.52717        0.15174        2.16731
C          6.88463        0.94727       -0.19697
C          7.83880       -1.23369        0.55841
C          4.13152       -0.22029        0.34058
C          1.64697        1.23667        0.74912
C          2.29922        2.42727        0.05994
C          2.58796        2.42804       -1.30826
C          3.10101        3.57235       -1.92520
C          3.33531        4.72932       -1.17812
C          3.06314        4.73216        0.19384
C          2.55091        3.58708        0.80604
C          0.12702        1.50158        0.94900
C         -0.45791        0.89773        2.21288
C         -0.75443        1.74226        3.29023
C         -1.27660        1.23022        4.48092
C         -1.51231       -0.14084        4.60378
C         -1.22303       -0.99068        3.53145
C         -0.70004       -0.47855        2.34225
N         -0.47381        1.00530       -0.29449
C         -1.82708        1.33150       -0.61174
C         -2.14366        2.61058       -1.11720
C         -1.06884        3.65084       -1.38556
C         -1.06942        4.11348       -2.84912
C         -1.17660        4.84463       -0.42472
C         -3.49532        2.87240       -1.36930
C         -4.49003        1.91296       -1.15708
C         -4.17171        0.63523       -0.67732
C         -2.82253        0.37358       -0.40507
H          1.91448       -2.53616       -0.79568
H          3.95782       -3.71094       -3.24981
H          3.26129       -5.32484       -2.94292
H          2.32596       -3.86232       -2.55531
H          2.03619       -4.69716       -0.13350
H          2.96784       -6.15884       -0.53931
H          3.46779       -5.12926        0.83019
H          6.01289       -4.45234       -1.88917
H          5.80465       -5.04912       -0.22198
H          5.21183       -6.01084       -1.59245
H          6.17585       -2.85282       -0.29198
H          5.71110        0.87397        2.31839
H          6.33641       -0.71293        2.82201
H          7.46384        0.63151        2.49489
H          6.07145        1.68360       -0.11285
H          7.82364        1.44679        0.09263
H          6.96326        0.65597       -1.25610
H          7.98719       -1.56092       -0.48194
H          8.75594       -0.71508        0.87802
H          7.72593       -2.13032        1.18689
H          4.16592        0.80931        0.68901
H          2.11272        1.08971        1.73558
H          2.42026        1.52368       -1.89388
H          3.32046        3.55744       -2.99533
H          3.73614        5.62375       -1.66049
H          3.25264        5.62887        0.78865
H          2.33588        3.59431        1.87877
H         -0.02148        2.58776        0.99725
H         -0.58312        2.81825        3.19122
H         -1.50800        1.90457        5.30899
H         -1.92659       -0.54627        5.53000
H         -1.40998       -2.06379        3.61773
H         -0.49848       -1.15704        1.51120
H         -0.09972        3.16616       -1.20839
H         -0.96912        3.25765       -3.53447
H         -1.99947        4.64436       -3.10953
H         -0.22790        4.80033       -3.03405
H         -1.16761        4.51672        0.62667
H         -2.11243        5.40437       -0.58627
H         -0.33316        5.53802       -0.57143
H         -3.78493        3.85310       -1.75550
H         -5.52407        2.17802       -1.37702
H         -2.51309       -0.59829       -0.02456
C         -5.20103       -0.46151       -0.42527
C         -6.64102       -0.02222       -0.76621
C         -5.17090       -0.87880        1.07028
C         -4.86374       -1.70819       -1.28715
C         -7.64216       -1.15857       -0.49697
H         -6.69793        0.27803       -1.82582
H         -6.91388        0.86105       -0.16491
C         -6.16648       -2.01805        1.34027
H         -4.15462       -1.19684        1.35062
H         -5.40979       -0.00152        1.69464
C         -5.85955       -2.84662       -1.01343
H         -3.83776       -2.04689       -1.07380
H         -4.88765       -1.42550       -2.35310
C         -7.28167       -2.37786       -1.36183
C         -7.58811       -1.55017        0.98906
H         -8.65719       -0.81041       -0.75174
C         -5.79630       -3.23465        0.47411
H         -6.11857       -2.29399        2.40714
H         -5.59179       -3.71740       -1.63490
H         -8.00537       -3.19255       -1.18867
H         -7.34193       -2.11485       -2.43172
H         -7.86944       -0.68876        1.61865
H         -8.31620       -2.35290        1.19628
H         -6.48817       -4.06966        0.67781
H         -4.78218       -3.58595        0.72942
