90
./14.log	Energy: -1303077.9175184
O         -0.40511       -2.56427        0.42368
P         -0.47896       -1.38024       -0.47668
H         -0.54336       -1.77361       -1.84101
N          0.74681       -0.19506       -0.39421
C          2.09578       -0.53143       -0.13134
C          2.57874       -1.80189       -0.47878
C          3.90517       -2.16541       -0.23314
C          4.35334       -3.59556       -0.57505
C          5.84298       -3.82532       -0.27893
C          4.11163       -3.86957       -2.07413
C          3.52656       -4.58799        0.27127
C          4.76850       -1.21309        0.33219
C          4.31799        0.06763        0.67600
C          5.24074        1.14720        1.26431
C          6.68125        0.64526        1.44392
C          4.70584        1.58787        2.64291
C          5.26174        2.36118        0.30954
C          2.97136        0.38723        0.45938
C          0.22846        1.14322       -0.10627
C          0.94855        2.25842       -0.83521
C          1.02995        3.52770       -0.25031
C          1.66014        4.57827       -0.92224
C          2.21712        4.36625       -2.18620
C          2.13513        3.10080       -2.77567
C          1.50151        2.05354       -2.10461
C         -1.26925        1.11222       -0.51796
C         -2.08323        2.15415        0.21088
C         -2.40277        1.98552        1.56471
C         -3.11612        2.96910        2.25007
C         -3.51551        4.13582        1.58866
C         -3.19854        4.31038        0.23982
C         -2.48731        3.32091       -0.44530
N         -1.71811       -0.25542       -0.24365
C         -3.08118       -0.61838       -0.50178
C         -3.84720       -1.28916        0.46923
C         -3.29279       -1.65966        1.83563
C         -4.13240       -1.04811        2.96765
C         -3.15723       -3.18140        1.99262
C         -5.17614       -1.62547        0.15537
C         -5.74642       -1.29326       -1.07719
O         -7.02257       -1.58316       -1.43362
C         -7.84936       -2.26199       -0.51719
C         -4.97483       -0.61267       -2.03411
C         -3.65867       -0.29127       -1.74206
H          1.89927       -2.53150       -0.91734
H          6.48534       -3.15279       -0.86831
H          6.07510       -3.67507        0.78636
H          6.11809       -4.86000       -0.53600
H          4.43439       -4.89054       -2.33507
H          3.04805       -3.77899       -2.33986
H          4.67708       -3.16011       -2.69871
H          3.70661       -4.42506        1.34535
H          2.44623       -4.47339        0.09814
H          3.80544       -5.62676        0.02932
H          5.80696       -1.47641        0.50711
H          7.30632        1.44841        1.86417
H          6.73175       -0.21184        2.13289
H          7.12941        0.34142        0.48561
H          4.66778        0.73568        3.33934
H          5.35872        2.36097        3.07992
H          3.69190        2.00878        2.57143
H          5.91849        3.15233        0.70724
H          5.63800        2.06942       -0.68341
H          4.25927        2.79248        0.17034
H          2.61391        1.37493        0.73362
H          0.28040        1.33942        0.97990
H          0.59901        3.69157        0.74041
H          1.72006        5.56372       -0.45429
H          2.71875        5.18389       -2.70912
H          2.57519        2.92658       -3.76048
H          1.45240        1.05885       -2.55206
H         -1.31113        1.33416       -1.60021
H         -2.09608        1.07105        2.07467
H         -3.36467        2.82401        3.30416
H         -4.07597        4.90546        2.12471
H         -3.50871        5.21769       -0.28385
H         -2.23851        3.45680       -1.50061
H         -2.27893       -1.24232        1.89552
H         -4.25130        0.03867        2.84024
H         -5.14093       -1.49086        3.01103
H         -3.65199       -1.23248        3.94196
H         -2.73981       -3.42618        2.98258
H         -2.47389       -3.58349        1.23314
H         -4.13552       -3.68297        1.90511
H         -5.76531       -2.15182        0.90484
H         -7.99036       -1.68443        0.41416
H         -8.82310       -2.39046       -1.00810
H         -7.44428       -3.25663       -0.25751
H         -5.42910       -0.35727       -2.99267
H         -3.05703        0.22892       -2.49008
