100
./15.log	Energy: -1447980.3088332
O         -0.25159       -2.01264        0.44032
P          0.04071       -0.86773       -0.46566
H         -0.12648       -1.23260       -1.82914
N          1.56499       -0.10368       -0.37509
C          2.75158       -0.82615       -0.10870
C          2.83310       -2.18545       -0.46701
C          3.99278       -2.92082       -0.23309
C          4.08678       -4.41618       -0.57480
C          4.37139       -5.20894        0.71846
C          5.23318       -4.64230       -1.58204
C          2.78532       -4.95306       -1.19094
C          5.10198       -2.26620        0.33789
C          5.05227       -0.91828        0.69603
C          6.25144       -0.16362        1.29111
C          7.48083       -1.06865        1.45949
C          5.87024        0.39913        2.67632
C          6.62695        1.00095        0.34856
C          3.85623       -0.21255        0.48527
C          1.46938        1.32916       -0.09146
C          2.49655        2.17537       -0.81440
C          2.95394        3.36089       -0.22711
C          3.87531        4.17249       -0.89412
C          4.34902        3.80248       -2.15560
C          3.89208        2.62078       -2.74761
C          2.96859        1.81346       -2.08143
C          0.03479        1.74836       -0.51616
C         -0.43556        2.98617        0.20935
C         -0.45816        4.22209       -0.44431
C         -0.84529        5.37899        0.23835
C         -1.21857        5.30550        1.58208
C         -1.20057        4.07102        2.24083
C         -0.80951        2.91908        1.55808
N         -0.80566        0.57852       -0.25003
C         -2.21125        0.63934       -0.52783
C         -3.15627        0.24264        0.43622
C         -2.76483       -0.28044        1.80855
C         -3.40024        0.55422        2.93094
C         -3.11046       -1.77089        1.95120
C         -4.51913        0.31506        0.10404
C         -4.94688        0.77207       -1.14469
O         -6.25080        0.85528       -1.52795
C         -7.26635        0.50082       -0.60773
C         -7.32155       -0.97925       -0.29089
C         -6.93403       -1.92704       -1.24615
C         -6.98883       -3.29029       -0.95007
C         -7.43683       -3.72181        0.30200
C         -7.82815       -2.78106        1.25834
C         -7.76562       -1.41680        0.96300
C         -3.99694        1.17541       -2.09606
C         -2.64771        1.10119       -1.78223
H          1.96493       -2.67149       -0.90429
H          4.44332       -6.28718        0.50101
H          5.31599       -4.89652        1.18802
H          3.56460       -5.05883        1.45242
H          5.31573       -5.71129       -1.83781
H          5.05343       -4.07988       -2.51175
H          6.20347       -4.31900       -1.17658
H          1.92853       -4.82598       -0.51196
H          2.54697       -4.44986       -2.14092
H          2.88991       -6.02842       -1.40291
H          6.01633       -2.83257        0.50201
H          8.31491       -0.48981        1.88566
H          7.27727       -1.91040        2.13911
H          7.81884       -1.47977        0.49599
H          5.58550       -0.41231        3.36418
H          6.72112        0.94277        3.11831
H          5.02354        1.09874        2.61345
H          6.89975        0.62231       -0.64884
H          5.79561        1.70947        0.21776
H          7.48761        1.55974        0.75151
H          3.80649        0.83439        0.76773
H          1.56910        1.50365        0.99513
H          2.58729        3.64708        0.76171
H          4.22725        5.09390       -0.42421
H          5.07671        4.43072       -2.67464
H          4.26429        2.32196       -3.73048
H          2.62400        0.87994       -2.53070
H          0.07089        1.97342       -1.59798
H         -0.16566        4.27859       -1.49565
H         -0.85883        6.33887       -0.28330
H         -1.52675        6.20752        2.11613
H         -1.49588        4.00553        3.29080
H         -0.80164        1.95333        2.06568
H         -1.67298       -0.19512        1.88962
H         -3.01926        0.22836        3.91210
H         -3.17988        1.62613        2.81221
H         -4.49626        0.43866        2.95055
H         -4.19282       -1.94605        1.83404
H         -2.81267       -2.13640        2.94725
H         -2.56590       -2.36086        1.20226
H         -5.24517       -0.01855        0.84129
H         -7.16680        1.08628        0.32443
H         -8.20214        0.81857       -1.09460
H         -6.57176       -1.58658       -2.21817
H         -6.67478       -4.02085       -1.69948
H         -7.47409       -4.78866        0.53429
H         -8.17244       -3.10938        2.24199
H         -8.05489       -0.68291        1.72113
H         -4.34078        1.53380       -3.06758
H         -1.90836        1.40729       -2.52511
