95
./16.log	Energy: -1305235.2278854
O          0.44206        2.26366       -1.35077
P          0.55445        0.78901       -1.14210
H          0.49334        0.10092       -2.38085
N         -0.56865        0.06017       -0.08890
C         -1.96764        0.27503       -0.12052
C         -2.49720        1.41796       -0.74005
C         -3.87879        1.62787       -0.79567
C         -4.40124        2.90008       -1.48284
C         -3.86189        4.13577       -0.73130
C         -5.93576        2.96846       -1.49314
C         -3.90212        2.93154       -2.94291
C         -4.73115        0.68074       -0.20668
C         -4.22730       -0.45989        0.43210
C         -5.13457       -1.52501        1.06978
C         -6.62315       -1.16151        0.96127
C         -4.78033       -1.67312        2.56431
C         -4.90973       -2.87354        0.35224
C         -2.83993       -0.65013        0.46920
C          0.02857       -0.92472        0.80676
C         -0.10642       -2.36761        0.33710
C         -0.54064       -2.69409       -0.95155
C         -0.60619       -4.02817       -1.36263
C         -0.24396       -5.05310       -0.48512
C          0.17752       -4.73586        0.81017
C          0.24289       -3.40220        1.21624
C          1.52139       -0.50219        0.95600
C          1.78334        0.37679        2.16333
C          1.08691        1.58099        2.35367
C          1.34309        2.37284        3.47235
C          2.29833        1.97588        4.41544
C          2.99662        0.78166        4.23200
C          2.73789       -0.01174        3.10909
N          1.86439        0.13492       -0.32452
C          3.22164        0.18551       -0.78292
C          3.98508        1.36617       -0.63125
C          3.42031        2.64071       -0.02380
C          4.19930        3.06177        1.22950
C          3.35241        3.76841       -1.06354
C          5.31587        1.35222       -1.07520
C          5.88021        0.21284       -1.64269
C          5.11322       -0.94175       -1.79179
C          3.77745       -0.97556       -1.37585
C          2.95605       -2.23741       -1.58139
C          2.80457       -2.58259       -3.06950
C          3.50945       -3.42673       -0.78394
H         -1.81062        2.15074       -1.16013
H         -4.19903        4.13302        0.31724
H         -2.76226        4.16242       -0.73230
H         -4.22316        5.06271       -1.20599
H         -6.37895        2.11552       -2.03002
H         -6.35151        2.98556       -0.47398
H         -6.26368        3.88880       -2.00073
H         -4.26668        2.05397       -3.49996
H         -4.26630        3.83769       -3.45383
H         -2.80358        2.93416       -2.99689
H         -5.80465        0.83674       -0.24497
H         -6.94653       -1.07311       -0.08707
H         -7.23371       -1.94732        1.43244
H         -6.84925       -0.21232        1.47080
H         -5.42446       -2.43080        3.03950
H         -3.73536       -1.98628        2.70700
H         -4.92127       -0.71942        3.09654
H         -5.15655       -2.79105       -0.71786
H         -3.86468       -3.20912        0.42870
H         -5.54886       -3.65613        0.79291
H         -2.43967       -1.54622        0.93700
H         -0.45250       -0.83542        1.79307
H         -0.83484       -1.89804       -1.63610
H         -0.94574       -4.26607       -2.37338
H         -0.29594       -6.09602       -0.80596
H          0.45559       -5.53070        1.50630
H          0.57360       -3.15919        2.23038
H          2.13247       -1.40894        1.05792
H          0.35222        1.90760        1.61502
H          0.79787        3.30994        3.60707
H          2.49999        2.60147        5.28812
H          3.74902        0.46732        4.95923
H          3.29071       -0.94361        2.96104
H          2.38980        2.43700        0.28086
H          4.22033        2.25355        1.97489
H          5.24032        3.33573        0.99159
H          3.72230        3.93760        1.69674
H          2.91759        4.67412       -0.61128
H          2.70796        3.47604       -1.90403
H          4.35152        4.02937       -1.45005
H          5.92019        2.25566       -0.96917
H          6.92097        0.22565       -1.97603
H          5.55578       -1.83039       -2.24797
H          1.94895       -2.03797       -1.20477
H          2.13427       -3.44827       -3.19376
H          2.37838       -1.73624       -3.63066
H          3.77280       -2.83551       -3.53106
H          3.59502       -3.18472        0.28697
H          4.51006       -3.72248       -1.13922
H          2.84054       -4.29604       -0.87935
