89
./18.log	Energy: -1302959.9422681
O         -0.33774       -2.65851        0.51765
P         -0.44067       -1.53896       -0.45730
H         -0.34181       -2.00671       -1.79372
N          0.66216       -0.23339       -0.36313
C          2.02445       -0.44532       -0.04587
C          2.78629        0.53986        0.58539
C          4.15244        0.34457        0.84719
C          4.94724        1.49737        1.48033
C          4.32660        1.86266        2.84498
C          4.88338        2.72264        0.54209
C          6.42208        1.13150        1.70314
C          4.72818       -0.87920        0.50296
C          3.97690       -1.90507       -0.10377
C          4.64938       -3.24820       -0.42832
C          5.82743       -3.01222       -1.39601
C          3.67540       -4.24173       -1.08092
C          5.17355       -3.87594        0.88058
C          2.63425       -1.66748       -0.38863
C          0.01109        1.04761       -0.08357
C          0.65859        2.23566       -0.76452
C          0.58368        3.49943       -0.16726
C          1.14414        4.61433       -0.79609
C          1.78672        4.47297       -2.02889
C          1.85918        3.21315       -2.63148
C          1.29499        2.10128       -2.00390
C         -1.45090        0.89177       -0.57783
C         -2.41263        1.83537        0.10349
C         -3.07714        2.81146       -0.64637
C         -3.95939        3.70458       -0.03209
C         -4.18927        3.62279        1.34275
C         -3.53080        2.64756        2.09942
C         -2.64637        1.76230        1.48371
N         -1.78203       -0.52675       -0.37569
C         -3.13638       -0.98494       -0.44572
C         -3.76980       -1.41853        0.76732
C         -3.06300       -1.55952        1.99313
C         -3.71267       -1.96500        3.13989
C         -5.09969       -2.24984        3.12301
C         -5.80777       -2.14466        1.94561
C         -5.16609       -1.74068        0.74333
C         -5.87124       -1.64846       -0.48642
C         -5.22122       -1.28634       -1.64096
C         -3.83685       -0.95729       -1.64669
C         -3.17916       -0.67114       -2.97731
C         -2.96533       -1.94949       -3.80081
H          2.32895        1.48608        0.85700
H          3.27990        2.18591        2.74360
H          4.34743        0.99967        3.52871
H          4.88722        2.68754        3.31417
H          5.31886        2.48377       -0.44071
H          3.84955        3.05880        0.37333
H          5.44767        3.56631        0.97235
H          6.95380        1.98325        2.15495
H          6.53068        0.27206        2.38245
H          6.92837        0.88689        0.75687
H          5.78266       -1.05341        0.70650
H          6.58446       -2.34197       -0.96242
H          6.32326       -3.96620       -1.63891
H          5.47627       -2.55871       -2.33623
H          2.81318       -4.45526       -0.43105
H          3.29477       -3.86620       -2.04357
H          4.19165       -5.19398       -1.27812
H          5.90993       -3.22683        1.37726
H          4.34722       -4.04999        1.58699
H          5.66094       -4.84305        0.67525
H          2.03763       -2.44529       -0.85809
H         -0.00431        1.23140        1.00596
H          0.08519        3.60847        0.79908
H          1.08208        5.59514       -0.31878
H          2.23411        5.34173       -2.51748
H          2.36609        3.09470       -3.59216
H          1.36599        1.11230       -2.46080
H         -1.45063        1.14058       -1.65310
H         -2.89828        2.87242       -1.72276
H         -4.47019        4.46270       -0.63038
H         -4.88271        4.31553        1.82556
H         -3.71144        2.57249        3.17422
H         -2.14585        0.99690        2.07745
H         -1.98840       -1.38862        2.00452
H         -3.14844       -2.07875        4.06853
H         -5.60155       -2.56560        4.04071
H         -6.87528       -2.37773        1.91541
H         -6.93880       -1.88227       -0.50169
H         -5.77176       -1.24139       -2.58452
H         -3.80930        0.03104       -3.54931
H         -2.21120       -0.17550       -2.83627
H         -3.91760       -2.46798       -3.99236
H         -2.50078       -1.71998       -4.77291
H         -2.30984       -2.65369       -3.26478
