71
./2.log	Energy: -1107989.7840125
O          0.01390       -2.96723        0.93342
P          0.00721       -1.89888       -0.10743
H          0.02367       -2.46652       -1.40679
N         -1.22343       -0.73205       -0.09213
C         -2.60928       -1.06504       -0.22239
C         -3.28376       -0.84140       -1.44174
C         -2.56258       -0.31598       -2.65658
C         -4.65065       -1.13155       -1.52438
C         -5.36187       -1.65445       -0.44033
C         -6.84079       -1.93083       -0.53644
C         -4.66170       -1.89851        0.74613
C         -3.29749       -1.61566        0.88364
C         -2.60578       -1.92729        2.18446
C         -0.69901        0.62362       -0.33439
C         -1.56150        1.74129        0.19357
C         -1.70421        2.90842       -0.56760
C         -2.43978        3.99216       -0.08258
C         -3.04745        3.91709        1.17294
C         -2.90922        2.75607        1.93962
C         -2.16877        1.67702        1.45425
C          0.70382        0.58941        0.31514
C          1.56281        1.76015       -0.08601
C          1.77687        2.79784        0.82910
C          2.51401        3.92817        0.46807
C          3.05128        4.03008       -0.81711
C          2.84314        2.99804       -1.73752
C          2.10245        1.87240       -1.37438
N          1.23032       -0.72427       -0.09762
C          2.61157       -1.07334        0.02966
C          3.33972       -1.42460       -1.12436
C          2.68791       -1.53411       -2.47958
C          4.70488       -1.71888       -0.99711
C          5.35826       -1.68181        0.23626
C          6.83374       -1.96808        0.35325
C          4.60012       -1.37048        1.37332
C          3.23605       -1.07979        1.29781
C          2.44332       -0.82902        2.55404
H         -2.41865        0.77577       -2.60271
H         -1.56722       -0.77251       -2.76452
H         -3.13618       -0.52661       -3.57022
H         -5.16906       -0.95535       -2.47131
H         -7.16495       -2.03897       -1.58228
H         -7.11556       -2.84934        0.00492
H         -7.42608       -1.10606       -0.09370
H         -5.19526       -2.31975        1.60303
H         -1.87587       -1.15189        2.45580
H         -3.33692       -2.03140        2.99886
H         -2.01856       -2.85375        2.10428
H         -0.53825        0.80058       -1.41108
H         -1.22246        2.97062       -1.54662
H         -2.53897        4.89624       -0.68796
H         -3.62872        4.76048        1.55333
H         -3.38345        2.68850        2.92165
H         -2.06705        0.77444        2.05523
H          0.55221        0.63358        1.40654
H          1.35106        2.72131        1.83263
H          2.66955        4.73010        1.19358
H          3.63275        4.91036       -1.10145
H          3.26302        3.06920       -2.74381
H          1.94712        1.07005       -2.09501
H          1.76271       -0.94715       -2.53674
H          3.37078       -1.20034       -3.27528
H          2.41888       -2.58131       -2.70109
H          5.27134       -1.98249       -1.89501
H          7.03977       -2.68543        1.16380
H          7.24139       -2.38230       -0.58050
H          7.39822       -1.04885        0.58575
H          5.08265       -1.37355        2.35516
H          1.48677       -1.37185        2.51836
H          3.00149       -1.16866        3.43780
H          2.22578        0.24261        2.69534
