100
./20.log	Energy: -1447981.5063472
O          0.68398       -1.66623       -1.90119
P          0.51360       -1.04853       -0.55339
H          0.39128       -2.04010        0.44993
N          1.69593        0.00430        0.08828
C          3.07132       -0.29945        0.13409
C          3.53814       -1.53598       -0.33002
C          4.90006       -1.86236       -0.27396
C          5.35215       -3.22837       -0.81429
C          6.86832       -3.43411       -0.67953
C          4.97608       -3.32787       -2.30826
C          4.63858       -4.34867       -0.02880
C          5.79187       -0.91893        0.24681
C          5.35536        0.33814        0.69958
C          6.38332        1.35358        1.22486
C          7.13425        0.74629        2.42795
C          5.72660        2.66704        1.67827
C          7.38826        1.68095        0.10014
C          3.99215        0.63500        0.64103
C          1.20241        1.36033        0.32177
C          1.56325        2.32471       -0.79504
C          1.80508        3.67164       -0.49704
C          2.07982        4.58820       -1.51480
C          2.11539        4.16191       -2.84548
C          1.88068        2.81753       -3.14823
C          1.60872        1.89995       -2.13007
C         -0.33262        1.21809        0.48646
C         -0.82764        0.98340        1.90135
C         -0.09290        0.23519        2.83380
C         -0.63655       -0.06546        4.08450
C         -1.92155        0.37371        4.41893
C         -2.65795        1.12166        3.49711
C         -2.11190        1.42429        2.24721
N         -0.70290        0.09159       -0.38371
C         -2.00401        0.03039       -0.96092
C         -2.98590       -0.86244       -0.49480
C         -2.68436       -1.88466        0.58797
C         -3.81288       -2.02417        1.61649
C         -2.33220       -3.24154       -0.04799
C         -4.26086       -0.82037       -1.07954
C         -4.57353        0.10665       -2.07791
O         -5.80337        0.22815       -2.65090
C         -6.86179       -0.59193       -2.19272
C         -7.29408       -0.29509       -0.77128
C         -7.79809       -1.31570        0.04412
C         -8.20312       -1.04515        1.35382
C         -8.09844        0.25147        1.86400
C         -7.59319        1.27424        1.05530
C         -7.19572        1.00332       -0.25534
C         -3.58642        0.99194       -2.53878
C         -2.31447        0.93876       -1.98689
H          2.83713       -2.23541       -0.78397
H          7.19471       -3.39066        0.37107
H          7.14617       -4.42358       -1.07445
H          7.43446       -2.67928       -1.24641
H          3.89255       -3.22268       -2.46613
H          5.47670       -2.53727       -2.88887
H          5.28520       -4.30343       -2.71786
H          4.88277       -4.29194        1.04375
H          3.54531       -4.28221       -0.12994
H          4.95043       -5.33819       -0.40075
H          6.85377       -1.15142        0.28954
H          7.66481       -0.17732        2.15327
H          7.87955        1.45911        2.81708
H          6.43471        0.50182        3.24270
H          6.49851        3.36289        2.04173
H          5.19225        3.16306        0.85345
H          5.01344        2.50320        2.50100
H          6.87072        2.11089       -0.77150
H          8.13630        2.41041        0.45153
H          7.92653        0.78337       -0.23834
H          3.63848        1.60563        0.97170
H          1.60842        1.74389        1.26910
H          1.78180        4.00555        0.54472
H          2.27248        5.63512       -1.26797
H          2.33367        4.87480       -3.64421
H          1.91590        2.47550       -4.18534
H          1.44523        0.84876       -2.37692
H         -0.81443        2.12317        0.09221
H          0.90463       -0.12720        2.57682
H         -0.05393       -0.64852        4.80189
H         -2.34633        0.13379        5.39647
H         -3.66320        1.46800        3.74890
H         -2.69502        1.99689        1.52160
H         -1.80052       -1.52252        1.13197
H         -3.49322       -2.68061        2.44097
H         -4.08307       -1.04777        2.04392
H         -4.72197       -2.46675        1.17874
H         -2.02389       -3.96767        0.72171
H         -1.51857       -3.14917       -0.78371
H         -3.20562       -3.65679       -0.57700
H         -5.02129       -1.50338       -0.71124
H         -7.68936       -0.38966       -2.89101
H         -6.60108       -1.66100       -2.29628
H         -7.86414       -2.33608       -0.34502
H         -8.59133       -1.85166        1.98050
H         -8.40648        0.46384        2.89052
H         -7.50639        2.28997        1.44910
H         -6.78899        1.79717       -0.88492
H         -3.83962        1.70043       -3.32903
H         -1.52928        1.60954       -2.34258
