86
./21.log	Energy: -1278309.1086813
O         -0.35010       -1.56268       -2.13016
P         -0.60359       -1.10049       -0.73262
H         -0.74906       -2.19928        0.14841
N          0.52471       -0.08597        0.04844
C          1.89690       -0.39265        0.16409
C          2.78801        0.52060        0.74342
C          4.15056        0.22156        0.86839
C          5.08448        1.27586        1.48519
C          4.61659        1.60089        2.91931
C          5.03626        2.55630        0.62395
C          6.54154        0.79371        1.55303
C          4.61165       -1.01846        0.40657
C          3.74442       -1.94732       -0.18911
C          4.22761       -3.29755       -0.74306
C          5.73385       -3.50925       -0.52813
C          3.93811       -3.35239       -2.25852
C          3.47146       -4.44038       -0.03347
C          2.39088       -1.61853       -0.30946
C          0.03544        1.27680        0.24319
C          0.50374        2.24468       -0.83197
C          0.54097        3.61597       -0.54495
C          0.92776        4.53728       -1.52031
C          1.28869        4.09184       -2.79574
C          1.26079        2.72507       -3.08426
C          0.87237        1.80362       -2.10825
C         -1.51258        1.16272        0.32433
C         -2.05769        1.06480        1.73570
C         -3.29995        1.63598        2.03225
C         -3.88236        1.46359        3.29053
C         -3.22128        0.71930        4.26957
C         -1.97298        0.15440        3.98608
C         -1.39536        0.32442        2.72722
N         -1.86188       -0.02395       -0.47941
C         -3.18296       -0.19152       -0.99758
C         -4.15317       -0.92337       -0.24070
C         -3.84872       -1.55664        0.99618
C         -4.81571       -2.24066        1.69999
C         -6.13982       -2.33254        1.20362
C         -6.46563       -1.74057        0.00312
C         -5.49058       -1.02871       -0.74916
C         -5.79912       -0.41741       -1.99217
C         -4.83409        0.25516       -2.70714
C         -3.50255        0.37767       -2.22713
C         -2.45546        1.07721       -3.05177
H          2.42381        1.48712        1.08303
H          4.63522        0.69887        3.55088
H          5.27606        2.35547        3.37815
H          3.59128        1.99958        2.93422
H          5.36305        2.34572       -0.40620
H          4.02110        2.97688        0.56962
H          5.70019        3.32891        1.04509
H          7.17213        1.57684        2.00168
H          6.64369       -0.11151        2.17098
H          6.94534        0.57365        0.55312
H          5.66587       -1.25998        0.49657
H          6.03355       -4.48731       -0.93525
H          6.33158       -2.73942       -1.03962
H          6.00011       -3.49694        0.54007
H          2.86542       -3.24088       -2.47542
H          4.47117       -2.54587       -2.78592
H          4.27036       -4.31587       -2.67841
H          2.38572       -4.37144       -0.19590
H          3.80601       -5.41857       -0.41539
H          3.65266       -4.41519        1.05266
H          1.71751       -2.30523       -0.82118
H          0.38303        1.65117        1.21680
H          0.26538        3.96561        0.45474
H          0.95427        5.60357       -1.28293
H          1.59657        4.80901       -3.56035
H          1.54575        2.36864       -4.07695
H          0.85322        0.73813       -2.34287
H         -1.95841        2.04385       -0.15930
H         -3.82612        2.20378        1.26060
H         -4.85799        1.90655        3.50351
H         -3.67532        0.58022        5.25351
H         -1.44878       -0.42558        4.74957
H         -0.43167       -0.13992        2.50584
H         -2.83850       -1.48501        1.39254
H         -4.55894       -2.71263        2.65114
H         -6.89747       -2.87604        1.77297
H         -7.48187       -1.81073       -0.39341
H         -6.81793       -0.49672       -2.38012
H         -5.08462        0.70512       -3.67094
H         -2.87967        1.44888       -3.99493
H         -2.00916        1.93167       -2.51977
H         -1.63220        0.38414       -3.28052
