76
./22.log	Energy: -1250730.7181268
O          0.99147        1.24601        2.39959
P          1.08379        0.17161        1.36560
H          0.48069       -1.03222        1.80980
N          2.65460       -0.19004        0.80475
C          3.78279       -0.41719        1.62432
C          4.92503       -1.05444        1.10526
C          6.03990       -0.88175        3.25551
C          3.78882       -0.00801        2.97333
C          2.72212       -0.34550       -0.64598
C          2.63735       -1.78624       -1.12695
C          2.92993       -2.07221       -2.46870
C          2.79506       -3.36837       -2.96716
C          2.36878       -4.40138       -2.12521
C          2.08914       -4.12736       -0.78498
C          2.22493       -2.82704       -0.28910
C          1.54154        0.50778       -1.19858
C          1.93152        1.93528       -1.52726
C          1.70728        2.42669       -2.81822
C          2.04399        3.74233       -3.15264
C          2.61465        4.57952       -2.19268
C          2.84546        4.09455       -0.90040
C          2.50614        2.78358       -0.56777
N          0.47409        0.40290       -0.18343
C         -0.85560        0.02293       -0.56144
C         -1.98775        0.83131       -0.33803
C         -2.02461        2.18763        0.36363
C         -2.27472        2.00860        1.87365
C         -0.84807        3.13426        0.10629
C         -3.24189        0.32689       -0.73711
C         -3.38943       -0.92120       -1.34369
O         -4.57876       -1.45191       -1.73926
C         -5.77230       -0.72472       -1.51550
C         -6.15266       -0.60344       -0.05446
C         -6.87901        0.50556        0.39640
C         -7.24737        0.61549        1.73962
C         -6.88243       -0.38131        2.64845
C         -6.15334       -1.48869        2.20465
C         -5.79302       -1.60093        0.86041
C         -2.25242       -1.71023       -1.57457
C         -1.01275       -1.23581       -1.17845
H          4.94458       -1.39931        0.07250
H          6.91260       -1.06109        3.88698
H          2.92439        0.51699        3.37918
H          3.66487        0.09501       -1.00474
H          3.26207       -1.26719       -3.13106
H          3.02481       -3.57499       -4.01517
H          2.26209       -5.41707       -2.51299
H          1.76485       -4.92920       -0.11753
H          2.01729       -2.62118        0.76140
H          1.16844        0.03808       -2.11641
H          1.25449        1.77387       -3.56988
H          1.85650        4.11215       -4.16363
H          2.87691        5.60915       -2.44744
H          3.28560        4.74617       -0.14193
H          2.66488        2.42959        0.45207
H         -2.92227        2.68051       -0.04760
H         -2.46149        2.98825        2.34309
H         -3.14989        1.36677        2.06034
H         -1.39526        1.57088        2.36725
H         -1.12814        4.15044        0.42774
H         -0.57898        3.17843       -0.95898
H          0.04067        2.84303        0.67551
H         -4.11623        0.94403       -0.53797
H         -5.71153        0.27685       -1.97875
H         -6.54474       -1.28947       -2.06148
H         -7.15097        1.29727       -0.30806
H         -7.81094        1.48777        2.07935
H         -7.16031       -0.29258        3.70129
H         -5.86013       -2.26876        2.91146
H         -5.21419       -2.45903        0.51334
H         -2.36786       -2.68615       -2.04868
H         -0.12701       -1.85381       -1.33460
C          4.90540       -0.24898        3.77253
H          4.88824        0.07816        4.81518
C          6.03955       -1.27660        1.91707
H          6.91435       -1.77421        1.49104
