101
./4.log	Energy: -1354543.0149644
O         -0.09142        2.33490       -0.56558
P          0.00443        1.11721        0.29322
H          0.10854        1.46863        1.66183
N         -1.21649       -0.05718        0.21137
C         -2.59181        0.23896        0.32722
C         -3.55599       -0.74269        0.08417
C         -4.92610       -0.45706        0.19978
C         -5.93904       -1.56958       -0.11460
C         -7.39080       -1.09953        0.06117
C         -5.70003       -2.76473        0.83176
C         -5.74820       -2.02386       -1.57788
C         -5.30833        0.83274        0.57320
C         -4.35958        1.84454        0.81571
C         -4.83576        3.25769        1.18738
C         -3.66312        4.22292        1.42134
C         -5.67518        3.18930        2.48010
C         -5.70147        3.81666        0.03845
C         -3.00661        1.53642        0.68549
C         -0.76337       -1.31925       -0.36772
C         -1.06737       -1.45245       -1.85024
C         -1.37720       -2.71473       -2.37279
C         -1.62288       -2.88064       -3.73775
C         -1.56145       -1.77799       -4.59434
C         -1.25650       -0.51567       -4.07720
C         -1.01233       -0.34908       -2.71181
C          0.76152       -1.39419       -0.05302
C          1.02797       -2.17692        1.22294
C          1.09686       -1.55464        2.47357
C          1.30306       -2.31021        3.63030
C          1.44473       -3.69804        3.54894
C          1.38131       -4.32711        2.30206
C          1.17500       -3.56867        1.14795
N          1.22555       -0.01199       -0.02493
C          2.60268        0.30912       -0.08730
C          3.00650        1.63602       -0.31217
C          4.36401        1.96909       -0.35104
C          4.83496        3.41218       -0.59275
C          5.68697        3.46010       -1.87833
C          5.68667        3.87497        0.60789
C          3.65785        4.38629       -0.75550
C          5.31066        0.94790       -0.17780
C          4.93474       -0.38518        0.02919
C          6.01202       -1.46494        0.22234
C          6.91499       -1.51341       -1.02764
C          5.40468       -2.86097        0.43517
C          6.86261       -1.11436        1.46117
C          3.56986       -0.69325        0.07310
H         -3.24820       -1.73859       -0.22257
H         -7.59291       -0.77747        1.09425
H         -7.63296       -0.26359       -0.61257
H         -8.08063       -1.92537       -0.17192
H         -5.82156       -2.46198        1.88357
H         -6.41955       -3.57260        0.62095
H         -4.68778       -3.18035        0.71757
H         -5.91355       -1.18459       -2.27115
H         -4.73365       -2.40845       -1.76039
H         -6.46373       -2.82402       -1.82865
H         -6.36501        1.07419        0.66501
H         -3.03408        4.33061        0.52475
H         -4.04922        5.22078        1.68078
H         -3.02095        3.88929        2.25110
H         -6.02745        4.19451        2.76338
H         -6.55931        2.54576        2.35988
H         -5.07788        2.78748        3.31355
H         -6.58496        3.18842       -0.14898
H         -6.05533        4.83172        0.28204
H         -5.12166        3.86963       -0.89606
H         -2.26120        2.31700        0.81488
H         -1.24347       -2.15153        0.16586
H         -1.43500       -3.57647       -1.70065
H         -1.86996       -3.86961       -4.13131
H         -1.75787       -1.90137       -5.66204
H         -1.21353        0.35149       -4.74043
H         -0.79155        0.64612       -2.31948
H          1.25380       -1.91352       -0.88891
H          1.01271       -0.46941        2.54354
H          1.35976       -1.81028        4.60012
H          1.61114       -4.28730        4.45365
H          1.50041       -5.41064        2.22738
H          1.13696       -4.06174        0.17203
H          2.24463        2.39228       -0.48348
H          6.57371        2.81286       -1.80519
H          5.09925        3.12824       -2.74834
H          6.03536        4.48791       -2.07095
H          6.03504        4.90958        0.45620
H          5.09901        3.84414        1.53875
H          6.57369        3.23962        0.74967
H          4.03940        5.40589       -0.92026
H          3.02348        4.12354       -1.61523
H          3.01832        4.40920        0.13975
H          6.37130        1.19951       -0.20918
H          7.69686       -2.28130       -0.90927
H          6.32642       -1.75774       -1.92575
H          7.41487       -0.55000       -1.20677
H          6.20969       -3.59980        0.57027
H          4.76348       -2.89893        1.32903
H          4.80295       -3.17994       -0.42981
H          7.64442       -1.87495        1.62014
H          7.35947       -0.13907        1.35119
H          6.23542       -1.07172        2.36531
H          3.25548       -1.71363        0.26110
