104
./5.log	Energy: -1426248.7930335
O         -0.78286       -2.58569        0.88742
P         -0.88675       -1.13587        1.23047
H         -1.47002       -0.95681        2.50065
N         -1.75955       -0.09080        0.21650
C         -3.12423       -0.27765       -0.10055
C         -3.92383        0.81657       -0.47384
C         -5.27772        0.64239       -0.76748
C         -6.17814        1.82511       -1.15917
C         -7.31707        1.95786       -0.12639
C         -6.77674        1.56873       -2.55792
C         -5.40767        3.15454       -1.19871
C         -5.82465       -0.64994       -0.67978
C         -5.04804       -1.75654       -0.32055
C         -5.61598       -3.18221       -0.23761
C         -4.89156       -4.07389       -1.26832
C         -7.12315       -3.22578       -0.53035
C         -5.37865       -3.74223        1.18086
C         -3.68785       -1.55773       -0.04171
C         -1.06075        1.15389       -0.06947
C         -1.42402        2.32325        0.83269
C         -1.19806        3.62682        0.36952
C         -1.48342        4.73062        1.17520
C         -2.00476        4.54216        2.45873
C         -2.23976        3.24612        2.92451
C         -1.95177        2.14408        2.11538
C          0.44183        0.77816        0.03421
C          0.97092        0.27526       -1.30467
C          1.57257        1.19781       -2.17219
C          2.07970        0.79228       -3.40855
C          1.98685       -0.54866       -3.79210
C          1.38203       -1.47114       -2.93401
C          0.87524       -1.06608       -1.69612
N          0.52215       -0.17912        1.15066
C          1.80041       -0.56057        1.65685
C          1.95945       -1.21483        2.90443
C          0.81063       -1.53479        3.82446
C          3.26006       -1.55339        3.29492
C          4.38745       -1.26951        2.52064
C          4.23991       -0.60288        1.30161
C          2.94321       -0.25254        0.90881
H         -3.48665        1.80887       -0.50595
H         -6.91073        2.13904        0.88096
H         -7.97796        2.80051       -0.38745
H         -7.93410        1.04831       -0.08101
H         -5.97996        1.46577       -3.31108
H         -7.38023        0.64928       -2.58065
H         -7.42777        2.40599       -2.85814
H         -4.97215        3.40631       -0.21963
H         -4.59317        3.13185       -1.93901
H         -6.08988        3.97145       -1.48049
H         -6.88090       -0.78660       -0.90190
H         -3.80893       -4.11612       -1.07859
H         -5.28215       -5.10381       -1.22749
H         -5.04032       -3.69006       -2.28982
H         -7.69541       -2.61409        0.18416
H         -7.35266       -2.87102       -1.54685
H         -7.48804       -4.26144       -0.45018
H         -4.30786       -3.78081        1.42933
H         -5.87957       -3.11727        1.93705
H         -5.77937       -4.76574        1.26147
H         -3.04653       -2.40368        0.20303
H         -1.26385        1.44341       -1.11158
H         -0.80025        3.77822       -0.63844
H         -1.30544        5.74051        0.79804
H         -2.23392        5.40337        3.09056
H         -2.65634        3.09020        3.92243
H         -2.16405        1.13788        2.47765
H          1.00707        1.67785        0.31640
H          1.66590        2.24391       -1.86503
H          2.55588        1.52178       -4.06805
H          2.39022       -0.87398       -4.75384
H          1.31024       -2.52203       -3.22382
H          0.43106       -1.80752       -1.02897
H          0.16987       -0.65446        3.99202
H          0.17843       -2.34582        3.42598
H          1.18670       -1.86553        4.80262
H          3.39168       -2.05692        4.25645
H          5.36931       -1.57041        2.88458
H          2.82824        0.24719       -0.04431
C          5.39024       -0.27833        0.35239
C          6.76448       -0.70475        0.91023
C          5.44293        1.24614        0.06670
C          5.17135       -1.01797       -0.99691
C          7.89035       -0.37231       -0.08408
H          6.76213       -1.78783        1.11579
H          6.95151       -0.19450        1.86991
C          6.56238        1.57896       -0.93253
H          4.47603        1.58428       -0.33805
H          5.59855        1.78719        1.01523
C          6.29247       -0.68405       -1.99287
H          4.19749       -0.73852       -1.42737
H          5.13291       -2.10385       -0.80868
C          7.64590       -1.11779       -1.40696
C          7.91538        1.14228       -0.34789
H          8.85491       -0.68905        0.34671
C          6.30498        0.83215       -2.25319
H          6.57092        2.66653       -1.11711
H          6.10566       -1.22022       -2.93846
H          8.45895       -0.90002       -2.12047
H          7.65109       -2.20749       -1.23439
H          8.11547        1.68753        0.59027
H          8.73163        1.39230       -1.04693
H          7.08625        1.08529       -2.99010
H          5.33861        1.14611       -2.68344
