87
./8.log	Energy: -1302202.9439486
O          0.09448       -2.89065       -1.06951
P         -0.26344       -1.43940       -1.12566
H         -0.17300       -0.95003       -2.45242
N          0.60267       -0.37703       -0.12794
C          2.01468       -0.29450       -0.08131
C          2.80399       -1.34739       -0.57038
C          4.20020       -1.26281       -0.55731
C          5.01446       -2.44891       -1.09957
C          6.52757       -2.18904       -1.04737
C          4.61665       -2.71188       -2.56732
C          4.70442       -3.70156       -0.25264
C          4.80237       -0.10846       -0.03276
C          4.03729        0.94810        0.47845
C          4.66426        2.23395        1.04182
C          4.19083        3.43702        0.19738
C          6.19951        2.19407        1.01024
C          4.21451        2.42544        2.50540
C          2.64129        0.84018        0.45111
C         -0.24269        0.56790        0.59166
C         -0.30169        1.95493       -0.03355
C         -0.78886        3.02154        0.73310
C         -0.84017        4.31287        0.20714
C         -0.39374        4.55586       -1.09529
C          0.09196        3.49696       -1.86633
C          0.13356        2.20388       -1.33873
C         -1.64281       -0.10264        0.68197
C         -1.84695       -0.90916        1.94897
C         -2.65725       -0.38401        2.96304
C         -2.83909       -1.07754        4.16262
C         -2.21194       -2.31069        4.35492
C         -1.40957       -2.84575        3.34182
C         -1.22825       -2.15309        2.14334
N         -1.75946       -0.90668       -0.54686
C         -2.99262       -1.56076       -0.84267
C         -4.17842       -0.80236       -0.98724
C         -4.18497        0.68349       -0.94486
C         -5.02666        1.36503       -0.04981
C         -5.04719        2.76166       -0.01197
C         -4.23189        3.49690       -0.87563
C         -3.39812        2.82847       -1.77634
C         -3.36984        1.43510       -1.80763
C         -5.38895       -1.48438       -1.19010
C         -5.43512       -2.87430       -1.29671
C         -4.25430       -3.61055       -1.18769
C         -3.04427       -2.96038       -0.94403
H          2.31215       -2.24683       -0.93727
H          7.06835       -3.05888       -1.45128
H          6.81221       -1.31116       -1.64775
H          6.87984       -2.02858       -0.01690
H          3.54812       -2.95502       -2.66148
H          4.81934       -1.82770       -3.19220
H          5.19121       -3.55938       -2.97524
H          4.97494       -3.53633        0.80210
H          3.63639       -3.96207       -0.28940
H          5.27707       -4.56762       -0.62291
H          5.88519       -0.03397       -0.02037
H          3.09591        3.54410        0.21287
H          4.62722        4.37326        0.58232
H          4.49979        3.32094       -0.85329
H          6.58406        2.08966       -0.01576
H          6.60513        3.13039        1.42383
H          6.59827        1.36296        1.61189
H          4.65798        3.34190        2.92761
H          3.12107        2.51495        2.58759
H          4.52986        1.57284        3.12692
H          2.03911        1.66616        0.82008
H          0.14459        0.67149        1.61688
H         -1.12843        2.83846        1.75662
H         -1.22372        5.13360        0.81770
H         -0.42241        5.56768       -1.50630
H          0.44732        3.67768       -2.88361
H          0.53671        1.38569       -1.93653
H         -2.39362        0.69493        0.65799
H         -3.15782        0.57567        2.80438
H         -3.47740       -0.65775        4.94396
H         -2.35413       -2.85899        5.28932
H         -0.92387       -3.81429        3.48281
H         -0.61363       -2.59261        1.35489
H         -5.65426        0.78834        0.63370
H         -5.70049        3.27574        0.69741
H         -4.23966        4.58878       -0.84460
H         -2.75337        3.39655       -2.44799
H         -2.70801        0.91761       -2.50340
H         -6.30356       -0.89723       -1.29944
H         -6.38879       -3.37766       -1.47086
H         -4.27189       -4.69982       -1.26897
H         -2.12358       -3.53052       -0.82269
