93
./9.log	Energy: -1398554.6694581
O          1.08201        1.28382       -1.03637
P          0.52218       -0.09830       -0.99587
H          0.29375       -0.60422       -2.29955
N         -0.88721       -0.31154       -0.06353
C         -2.04219        0.50419       -0.14489
C         -3.28868        0.00209        0.25318
C         -4.44470        0.78810        0.16473
C         -5.78799        0.17686        0.59625
C         -6.95185        1.16888        0.45108
C         -5.70216       -0.25576        2.07501
C         -6.08788       -1.05648       -0.28271
C         -4.33135        2.09279       -0.33414
C         -3.09354        2.62125       -0.73264
C         -2.93527        4.05556       -1.26290
C         -2.00871        4.84411       -0.31301
C         -4.27897        4.79399       -1.35610
C         -2.30503        4.01027       -2.67103
C         -1.95257        1.81940       -0.62500
C         -0.85486       -1.49720        0.78688
C         -1.52260       -2.72655        0.19197
C         -1.79884       -2.83479       -1.17456
C         -2.35270       -4.00727       -1.69675
C         -2.63874       -5.08519       -0.85595
C         -2.37495       -4.98175        0.51408
C         -1.82274       -3.80910        1.03172
C          0.66218       -1.75010        1.04203
C          1.17619       -1.00466        2.26106
C          1.34366       -1.70948        3.46100
C          1.74693       -1.05401        4.62714
C          1.98361        0.32278        4.60434
C          1.82397        1.03144        3.40978
C          1.42853        0.37525        2.24211
N          1.31718       -1.37545       -0.21710
C          2.21418       -2.24666       -0.89689
C          3.42481       -1.75128       -1.43128
C          3.85708       -0.34655       -1.20652
C          4.06113        0.52281       -2.31361
C          4.41831        1.83761       -2.12098
C          4.60792        2.35768       -0.81315
C          4.96585        3.71278       -0.57467
C          5.15142        4.17927        0.70921
C          4.99275        3.30694        1.81663
C          4.64519        1.98796        1.61876
C          4.43542        1.47951        0.30681
C          4.05290        0.13462        0.07505
C          4.22975       -2.62302       -2.18442
C          3.88019       -3.95983       -2.37056
C          2.69417       -4.44775       -1.81407
C          1.85984       -3.59097       -1.09817
H         -3.36620       -1.02255        0.60972
H         -6.80286        2.06566        1.07176
H         -7.08448        1.49269       -0.59247
H         -7.89042        0.69177        0.77325
H         -5.47654        0.60589        2.72257
H         -6.65867       -0.69311        2.40475
H         -4.91722       -1.01013        2.23390
H         -6.15243       -0.77171       -1.34458
H         -5.30598       -1.82497       -0.18978
H         -7.04729       -1.51414        0.00927
H         -5.22095        2.71001       -0.41129
H         -1.01231        4.38343       -0.24424
H         -1.87943        5.87817       -0.67240
H         -2.43307        4.88386        0.70257
H         -4.11855        5.81036       -1.74792
H         -4.98007        4.28218       -2.03339
H         -4.76203        4.89049       -0.37163
H         -2.94469        3.44565       -3.36777
H         -2.18103        5.03052       -3.06929
H         -1.31472        3.53188       -2.65777
H         -0.97342        2.21000       -0.89583
H         -1.33855       -1.25603        1.74554
H         -1.59552       -1.98933       -1.83239
H         -2.56424       -4.07551       -2.76640
H         -3.07298       -6.00084       -1.26388
H         -2.60500       -5.81595        1.18119
H         -1.62041       -3.73055        2.10415
H          0.81579       -2.82289        1.20672
H          1.15986       -2.78787        3.48176
H          1.87952       -1.62019        5.55228
H          2.29812        0.84098        5.51348
H          2.02021        2.10517        3.37679
H          1.34248        0.94583        1.31611
H          3.89834        0.13964       -3.32367
H          4.54893        2.50411       -2.97730
H          5.09056        4.38136       -1.43055
H          5.42393        5.22377        0.87882
H          5.14782        3.68647        2.82967
H          4.51735        1.31320        2.46758
H          3.90060       -0.52321        0.93234
H          5.16310       -2.23785       -2.60133
H          4.53353       -4.62080       -2.94457
H          2.40331       -5.49090       -1.95803
H          0.90525       -3.95397       -0.71355
